19
Simple FeO
Fe   0.00000     0.00000     0.00000    0  Fe   0.0
O    0.00000     0.00000    -2.13870    2  O1   2.1387
O   -2.13870     0.00000     0.00000    2 
O    0.00000    -2.13870     0.00000    2
O    0.00000     0.00000     2.13870    2 
O    2.13870     0.00000     0.00000    2  
O    0.00000     2.13870     0.00000    2
Fe   0.00000     2.13870     2.13870    1
Fe   0.00000    -2.13870    -2.13870    
Fe  -2.13870     2.13870     0.00000
Fe   2.13870    -2.13870     0.00000    
Fe   0.00000    -2.13870     2.13870    
Fe  -2.13870    -2.13870     0.00000
Fe   0.00000     2.13870    -2.13870
Fe   2.13870     0.00000     2.13870
Fe   2.13870     2.13870     0.00000  
Fe   2.13870     0.00000    -2.13870    
Fe  -2.13870     0.00000    -2.13870    
Fe  -2.13870     0.00000     2.13870
